data_image0
_cell_length_a       11.045
_cell_length_b       11.715
_cell_length_c       15.6644
_cell_angle_alpha    90
_cell_angle_beta     90
_cell_angle_gamma    90

_symmetry_space_group_name_H-M    "P 1"
_symmetry_int_tables_number       1

loop_
  _symmetry_equiv_pos_as_xyz
  'x, y, z'

loop_
  _atom_site_label
  _atom_site_occupancy
  _atom_site_fract_x
  _atom_site_fract_y
  _atom_site_fract_z
  _atom_site_thermal_displace_type
  _atom_site_B_iso_or_equiv
  _atom_site_type_symbol
  Sr1      1.0000 0.00000  0.00000  0.19152  Biso   1.000  Sr
  Ti1      1.0000 0.25000  0.16667  0.19152  Biso   1.000  Ti
  O1       1.0000 0.25000  0.00000  0.19152  Biso   1.000  O
  O2       1.0000 0.12500  0.16667  0.27966  Biso   1.000  O
  O3       1.0000 0.37500  0.16667  0.27966  Biso   1.000  O
  Sr2      1.0000 0.25000  0.00000  0.36779  Biso   1.000  Sr
  Ti2      1.0000 0.00000  0.16667  0.36779  Biso   1.000  Ti
  O4       1.0000 0.00000  0.00000  0.36779  Biso   1.000  O
  O5       1.0000 0.37500  0.16667  0.45593  Biso   1.000  O
  O6       1.0000 0.12500  0.16667  0.45593  Biso   1.000  O
  Sr3      1.0000 0.00000  0.00000  0.54407  Biso   1.000  Sr
  Ti3      1.0000 0.25000  0.16667  0.54407  Biso   1.000  Ti
  O7       1.0000 0.25000  0.00000  0.54407  Biso   1.000  O
  O8       1.0000 0.12500  0.16667  0.63221  Biso   1.000  O
  O9       1.0000 0.37500  0.16667  0.63221  Biso   1.000  O
  Sr4      1.0000 0.25000  0.00000  0.72034  Biso   1.000  Sr
  Ti4      1.0000 0.00000  0.16667  0.72034  Biso   1.000  Ti
  O10      1.0000 0.00000  0.00000  0.72034  Biso   1.000  O
  O11      1.0000 0.37500  0.16667  0.80848  Biso   1.000  O
  O12      1.0000 0.12500  0.16667  0.80848  Biso   1.000  O
  Sr5      1.0000 0.00000  0.33333  0.19152  Biso   1.000  Sr
  Ti5      1.0000 0.25000  0.50000  0.19152  Biso   1.000  Ti
  O13      1.0000 0.25000  0.33333  0.19152  Biso   1.000  O
  O14      1.0000 0.12500  0.50000  0.27966  Biso   1.000  O
  O15      1.0000 0.37500  0.50000  0.27966  Biso   1.000  O
  Sr6      1.0000 0.25000  0.33333  0.36779  Biso   1.000  Sr
  Ti6      1.0000 0.00000  0.50000  0.36779  Biso   1.000  Ti
  O16      1.0000 0.00000  0.33333  0.36779  Biso   1.000  O
  O17      1.0000 0.37500  0.50000  0.45593  Biso   1.000  O
  O18      1.0000 0.12500  0.50000  0.45593  Biso   1.000  O
  Sr7      1.0000 0.00000  0.33333  0.54407  Biso   1.000  Sr
  Ti7      1.0000 0.25000  0.50000  0.54407  Biso   1.000  Ti
  O19      1.0000 0.25000  0.33333  0.54407  Biso   1.000  O
  O20      1.0000 0.12500  0.50000  0.63221  Biso   1.000  O
  O21      1.0000 0.37500  0.50000  0.63221  Biso   1.000  O
  Sr8      1.0000 0.25000  0.33333  0.72034  Biso   1.000  Sr
  Ti8      1.0000 0.00000  0.50000  0.72034  Biso   1.000  Ti
  O22      1.0000 0.00000  0.33333  0.72034  Biso   1.000  O
  O23      1.0000 0.37500  0.50000  0.80848  Biso   1.000  O
  O24      1.0000 0.12500  0.50000  0.80848  Biso   1.000  O
  Sr9      1.0000 0.00000  0.66667  0.19152  Biso   1.000  Sr
  Ti9      1.0000 0.25000  0.83333  0.19152  Biso   1.000  Ti
  O25      1.0000 0.25000  0.66667  0.19152  Biso   1.000  O
  O26      1.0000 0.12500  0.83333  0.27966  Biso   1.000  O
  O27      1.0000 0.37500  0.83333  0.27966  Biso   1.000  O
  Sr10     1.0000 0.25000  0.66667  0.36779  Biso   1.000  Sr
  Ti10     1.0000 0.00000  0.83333  0.36779  Biso   1.000  Ti
  O28      1.0000 0.00000  0.66667  0.36779  Biso   1.000  O
  O29      1.0000 0.37500  0.83333  0.45593  Biso   1.000  O
  O30      1.0000 0.12500  0.83333  0.45593  Biso   1.000  O
  Sr11     1.0000 0.00000  0.66667  0.54407  Biso   1.000  Sr
  Ti11     1.0000 0.25000  0.83333  0.54407  Biso   1.000  Ti
  O31      1.0000 0.25000  0.66667  0.54407  Biso   1.000  O
  O32      1.0000 0.12500  0.83333  0.63221  Biso   1.000  O
  O33      1.0000 0.37500  0.83333  0.63221  Biso   1.000  O
  Sr12     1.0000 0.25000  0.66667  0.72034  Biso   1.000  Sr
  Ti12     1.0000 0.00000  0.83333  0.72034  Biso   1.000  Ti
  O34      1.0000 0.00000  0.66667  0.72034  Biso   1.000  O
  O35      1.0000 0.37500  0.83333  0.80848  Biso   1.000  O
  O36      1.0000 0.12500  0.83333  0.80848  Biso   1.000  O
  Sr13     1.0000 0.50000  0.00000  0.19152  Biso   1.000  Sr
  Ti13     1.0000 0.75000  0.16667  0.19152  Biso   1.000  Ti
  O37      1.0000 0.75000  0.00000  0.19152  Biso   1.000  O
  O38      1.0000 0.62500  0.16667  0.27966  Biso   1.000  O
  O39      1.0000 0.87500  0.16667  0.27966  Biso   1.000  O
  Sr14     1.0000 0.75000  0.00000  0.36779  Biso   1.000  Sr
  Ti14     1.0000 0.50000  0.16667  0.36779  Biso   1.000  Ti
  O40      1.0000 0.50000  0.00000  0.36779  Biso   1.000  O
  O41      1.0000 0.87500  0.16667  0.45593  Biso   1.000  O
  O42      1.0000 0.62500  0.16667  0.45593  Biso   1.000  O
  Sr15     1.0000 0.50000  0.00000  0.54407  Biso   1.000  Sr
  Ti15     1.0000 0.75000  0.16667  0.54407  Biso   1.000  Ti
  O43      1.0000 0.75000  0.00000  0.54407  Biso   1.000  O
  O44      1.0000 0.62500  0.16667  0.63221  Biso   1.000  O
  O45      1.0000 0.87500  0.16667  0.63221  Biso   1.000  O
  Sr16     1.0000 0.75000  0.00000  0.72034  Biso   1.000  Sr
  Ti16     1.0000 0.50000  0.16667  0.72034  Biso   1.000  Ti
  O46      1.0000 0.50000  0.00000  0.72034  Biso   1.000  O
  O47      1.0000 0.87500  0.16667  0.80848  Biso   1.000  O
  O48      1.0000 0.62500  0.16667  0.80848  Biso   1.000  O
  Sr17     1.0000 0.50000  0.33333  0.19152  Biso   1.000  Sr
  Ti17     1.0000 0.75000  0.50000  0.19152  Biso   1.000  Ti
  O49      1.0000 0.75000  0.33333  0.19152  Biso   1.000  O
  O50      1.0000 0.62500  0.50000  0.27966  Biso   1.000  O
  O51      1.0000 0.87500  0.50000  0.27966  Biso   1.000  O
  Sr18     1.0000 0.75000  0.33333  0.36779  Biso   1.000  Sr
  Ti18     1.0000 0.50000  0.50000  0.36779  Biso   1.000  Ti
  O52      1.0000 0.50000  0.33333  0.36779  Biso   1.000  O
  O53      1.0000 0.87500  0.50000  0.45593  Biso   1.000  O
  O54      1.0000 0.62500  0.50000  0.45593  Biso   1.000  O
  Sr19     1.0000 0.50000  0.33333  0.54407  Biso   1.000  Sr
  Ti19     1.0000 0.75000  0.50000  0.54407  Biso   1.000  Ti
  O55      1.0000 0.75000  0.33333  0.54407  Biso   1.000  O
  O56      1.0000 0.62500  0.50000  0.63221  Biso   1.000  O
  O57      1.0000 0.87500  0.50000  0.63221  Biso   1.000  O
  Sr20     1.0000 0.75000  0.33333  0.72034  Biso   1.000  Sr
  Ti20     1.0000 0.50000  0.50000  0.72034  Biso   1.000  Ti
  O58      1.0000 0.50000  0.33333  0.72034  Biso   1.000  O
  O59      1.0000 0.87500  0.50000  0.80848  Biso   1.000  O
  O60      1.0000 0.62500  0.50000  0.80848  Biso   1.000  O
  Sr21     1.0000 0.50000  0.66667  0.19152  Biso   1.000  Sr
  Ti21     1.0000 0.75000  0.83333  0.19152  Biso   1.000  Ti
  O61      1.0000 0.75000  0.66667  0.19152  Biso   1.000  O
  O62      1.0000 0.62500  0.83333  0.27966  Biso   1.000  O
  O63      1.0000 0.87500  0.83333  0.27966  Biso   1.000  O
  Sr22     1.0000 0.75000  0.66667  0.36779  Biso   1.000  Sr
  Ti22     1.0000 0.50000  0.83333  0.36779  Biso   1.000  Ti
  O64      1.0000 0.50000  0.66667  0.36779  Biso   1.000  O
  O65      1.0000 0.87500  0.83333  0.45593  Biso   1.000  O
  O66      1.0000 0.62500  0.83333  0.45593  Biso   1.000  O
  Sr23     1.0000 0.50000  0.66667  0.54407  Biso   1.000  Sr
  Ti23     1.0000 0.75000  0.83333  0.54407  Biso   1.000  Ti
  O67      1.0000 0.75000  0.66667  0.54407  Biso   1.000  O
  O68      1.0000 0.62500  0.83333  0.63221  Biso   1.000  O
  O69      1.0000 0.87500  0.83333  0.63221  Biso   1.000  O
  Sr24     1.0000 0.75000  0.66667  0.72034  Biso   1.000  Sr
  Ti24     1.0000 0.50000  0.83333  0.72034  Biso   1.000  Ti
  O70      1.0000 0.50000  0.66667  0.72034  Biso   1.000  O
  O71      1.0000 0.87500  0.83333  0.80848  Biso   1.000  O
  O72      1.0000 0.62500  0.83333  0.80848  Biso   1.000  O
